18

N          8.38300        0.72700       24.94700
C          7.63800        1.47900       24.03700
O          8.10900        2.47600       23.46500
C          9.76500        1.06600       25.27600
N         13.92900       -1.73000       20.62300
O          3.41100        1.08000       23.66700
C         10.69100        0.44100       24.27100
N          6.27200        0.97500       23.82400
C         11.85300        1.10400       23.88700
C         12.70700        0.52300       22.95200
C         12.37800       -0.71700       22.39600
C         13.22200       -1.29200       21.41900
C         11.22000       -1.38800       22.78000
C         10.37800       -0.80800       23.72000
C          5.41200        0.86500       25.04800
C          3.98300        0.36000       24.74400
C          4.16000        1.04300       22.46900
C          5.55200        1.65700       22.71500
