13

C          6.37800       -4.94400       26.60600
S          8.03900       -4.35100       26.18600
O          9.02700       -5.43400       26.20400
O          8.58200       -3.50300       27.23400
N          8.00900       -3.52800       24.69400
C          9.26400       -3.02100       24.20000
C          9.16100       -1.74200       23.38000
C         10.55500       -1.13700       23.42900
C         10.85900       -0.09000       24.29100
C         12.14800        0.41500       24.31700
C         13.13000       -0.13800       23.51200
C         12.82400       -1.19300       22.66100
C         11.53600       -1.68800       22.62900
