18

N          7.00700       -4.52800       21.30400
C          7.26400       -2.96300       19.40900
O          5.48200       -4.50700       19.66300
C          6.51200       -4.05200       20.14300
N          9.87500       -2.31300       23.71800
C          6.17800       -5.39600       22.15000
C          7.02500       -6.30600       23.01700
C          7.88000       -5.48500       23.98500
C          8.25000       -4.13200       23.36600
C          8.33300       -4.27300       21.85700
C          9.51600       -3.53700       23.94100
C         11.08900       -2.03500       24.34100
C         11.77300       -0.82500       24.28800
C         12.97200       -0.71700       24.95900
C         13.50300       -1.77900       25.67900
C         12.83800       -2.98200       25.75300
C         11.62700       -3.09800       25.07500
S         10.57100       -4.47100       24.97500
