16

N          7.02000       -4.78600       21.71500
C          7.45400       -2.46400       22.51100
O          5.63800       -5.15600       19.97200
C          7.33500       -3.93800       22.87900
C          6.46600       -4.43600       20.53700
C          6.86000       -3.23500       19.68400
C          6.35200       -4.14000       24.02500
C          5.01300       -4.30600       23.75900
C          4.06500       -4.47900       24.78500
C          4.46100       -4.49100       26.08000
C          5.82100       -4.32400       26.43100
C          6.22800       -4.33800       27.78600
C          7.53200       -4.18300       28.12200
C          8.50300       -3.99900       27.12800
C          8.14700       -3.97900       25.81200
C          6.79500       -4.14400       25.40100
