14

C          1.99500       -8.02500       24.67800
N          1.93700       -5.45200       23.05900
O          4.37400       -7.67300       24.71700
C          3.11700       -7.02100       24.52500
N          5.37100       -5.99500       22.22400
O          0.70000       -6.87800       21.84100
C          3.11100       -6.30800       23.15800
O          4.40900       -4.32100       23.39400
C          0.80300       -5.81600       22.45500
C         -0.34200       -4.85700       22.55300
C          4.36700       -5.45900       22.93300
C          6.60100       -5.26400       21.91700
C          6.71600       -4.82000       20.50100
C          5.90300       -5.29500       19.61600
