20

N          5.59100       -5.15700       24.43900
C          2.39500       -4.06800       25.79900
O          4.30300       -6.23900       26.22800
C          1.41600       -3.10500       25.77000
N          6.45600       -5.05800       21.77100
O          6.04100       -4.57400       26.79400
C          1.79400       -1.78100       25.85100
O          5.72000       -4.83200       19.65200
C          3.12200       -1.41100       25.96200
C          4.08100       -2.39600       25.98600
C          3.73800       -3.73700       25.90600
C          4.62600       -5.28300       23.33800
C          5.33400       -5.90700       22.16800
C          7.41900       -4.90900       22.86500
C          6.74000       -4.31200       24.07200
C          6.50400       -4.50700       20.53600
C          7.51700       -3.42100       20.27400
F          2.02600       -5.36600       25.72000
F          5.38100       -2.03200       26.08900
S          4.97100       -5.00600       25.94800
