17

N          5.54700       -3.65000       23.74700
C          1.29900       -2.33200       28.29900
O          2.71900       -2.20600       28.30500
C          3.40500       -2.57300       27.17800
N          6.70000       -4.26200       21.28100
O          5.60000       -4.96200       19.44300
C          2.90200       -3.53100       26.30700
C          3.61800       -3.88000       25.17700
C          4.85300       -3.29600       24.89400
C          5.34000       -2.32900       25.77800
C          4.62700       -1.97500       26.90900
C          5.27200       -4.95200       23.11200
C          6.31200       -5.39400       22.10700
C          7.41400       -3.29300       22.10100
C          6.46600       -2.68500       23.11000
C          6.34800       -4.15600       19.98000
C          6.90200       -3.00900       19.17100
