18

N          8.57700       -1.86900       23.15100
C         12.51000       -1.90300       22.26700
O          5.77200       -4.36100       19.65600
C         11.94800       -0.81000       23.14000
N          6.51200       -2.81200       21.10300
C         12.66600        0.36700       23.27400
C         12.21000        1.40300       24.06400
C         11.01700        1.27700       24.73600
C         10.28800        0.11100       24.62200
C         10.74100       -0.95400       23.84500
C          9.88600       -2.19400       23.73100
C          8.69600       -1.39800       21.76200
C          7.51800       -0.57200       21.32300
C          6.25400       -1.39000       21.36300
C          6.99100       -3.64900       22.21100
C          7.55200       -2.89700       23.41600
C          6.38600       -3.31800       19.86400
C          7.07900       -2.64600       18.68800
