11

N          7.35200       -3.10400       21.39100
C          8.40200       -2.55300       19.35200
O          6.21800       -3.53500       19.46100
Cl         6.30700       -5.85700       21.79500
C          7.20200       -3.12600       20.05600
N          4.86700       -4.62800       23.57400
C          6.35300       -3.20800       22.38100
C          5.91800       -2.10500       23.11200
C          4.94700       -2.29100       24.07200
C          4.45400       -3.56300       24.26700
C          5.79600       -4.44800       22.65900
