16

N          6.93500       -3.25500       26.53500
C          8.91400       -4.64900       27.10200
O          4.93200       -3.13800       25.48500
C          7.46900       -4.32100       27.42000
N          6.88900       -4.37200       21.37800
O          5.54600       -4.95600       19.66000
C          6.58300       -5.55000       27.45100
C          7.44900       -1.90800       26.80000
C          6.11600       -3.49000       25.48900
C          6.77100       -4.06200       24.24300
C          5.83200       -5.00300       23.48400
C          6.49700       -5.50300       22.22600
C          7.82200       -3.45400       22.04000
C          7.21600       -2.92300       23.31800
C          6.40100       -4.21500       20.12600
C          6.95000       -3.08300       19.30000
