16

O          5.74400       -4.27700       19.71800
C          6.52500       -3.36700       19.96700
C          7.17000       -2.60600       18.84000
N          6.84500       -3.01500       21.23200
C          6.29000       -3.71600       22.39900
C          7.39900       -4.31600       23.22900
O          8.58700       -3.51200       23.20000
C          8.30600       -2.13500       22.99400
C          9.58400       -1.37000       23.23700
C          9.71100       -0.60400       24.38300
C         10.86000        0.11400       24.63700
C         11.87200        0.04900       23.73100
C         11.80200       -0.69100       22.58500
C         10.64600       -1.40900       22.34500
C          7.71700       -1.90500       21.60800
F         13.00200        0.75700       23.98900
