17

N          6.84000       -4.25700       21.42000
C          6.92300       -3.02100       19.29200
O          5.55400       -4.90600       19.67800
C          6.38400       -4.13700       20.15000
N          6.37300       -3.43900       26.72600
O          4.74800       -2.73500       25.33000
C          7.75900       -3.34800       22.12000
C          7.07400       -2.74500       23.33000
C          6.54100       -3.84800       24.25300
C          5.63200       -4.77700       23.46500
C          6.37200       -5.34900       22.28100
C          5.83200       -3.29600       25.47000
C          7.76800       -3.79000       27.01600
C          7.84900       -5.00600       27.91100
C          7.12800       -4.73300       29.21600
C          5.68700       -4.34600       28.92900
C          5.59100       -3.19100       27.94600
