17

O          5.67400       -3.94700       20.07600
C          6.60700       -4.19700       20.83000
C          8.02700       -3.89600       20.41600
N          6.40500       -4.76700       22.06400
C          7.44700       -4.83700       23.05600
C          8.44700       -5.80400       22.97800
C          9.41900       -5.87700       23.96300
C          9.39200       -5.01600       25.03800
C          8.39300       -4.07600       25.13600
C          7.42100       -3.98000       24.15400
C          5.09200       -5.31000       22.39700
C          5.01900       -6.79600       22.10000
C          3.99800       -7.37300       22.70800
S          3.71100       -6.60100       24.24800
O          4.28200       -7.38500       25.31100
O          2.32900       -6.22400       24.37100
C          4.72800       -5.18400       23.88900
