19

N          5.96100       -5.21500       24.26700
C          0.87300       -1.09700       25.90600
O          6.39400       -4.72400       26.63300
C          1.97700       -2.11200       25.87400
N          6.76000       -5.07800       21.58100
O          4.74600       -6.46100       26.01600
C          3.20400       -1.84100       26.45700
O          5.54700       -5.13200       19.67900
C          4.23300       -2.76300       26.43800
C          4.03600       -3.98600       25.81500
C          2.81500       -4.28300       25.22900
C          1.80200       -3.34400       25.26300
C          5.17800       -5.89700       23.22600
C          6.11800       -6.27900       22.11500
C          7.49100       -4.32600       22.60600
C          6.57800       -3.98100       23.75400
C          6.38300       -4.58100       20.38300
C          7.00800       -3.28900       19.93200
S          5.33900       -5.18200       25.78400
