15

C          1.24500       -8.63900       21.12500
N          2.67500       -7.23900       22.48000
O          0.61400       -6.50700       21.96700
C          1.47800       -7.37900       21.89500
N          2.11400       -8.40800       25.98400
O          3.90400       -8.41600       24.64200
C          2.99100       -6.08700       23.32300
N          5.27100       -6.11200       22.32100
O          4.72400       -4.53600       23.82500
C          2.68100       -6.37600       24.79300
C          2.94900       -7.82700       25.13700
C          4.41100       -5.52700       23.16900
C          6.50700       -5.46500       21.87000
C          6.51200       -5.11400       20.38700
C          5.54600       -5.62400       19.65700
