15

N          7.12400       -3.77900       21.30000
C          7.69100       -4.66100       27.65300
O          7.53300       -4.74000       26.23600
C          6.42900       -5.36000       25.73900
N          7.08300       -4.54000       23.50000
O          5.60700       -4.21200       19.67600
C          5.51200       -6.08900       26.49400
C          4.41300       -6.68700       25.87100
C          4.21100       -6.57400       24.51200
C          5.13600       -5.84600       23.77300
C          6.56300       -4.53900       22.30500
C          6.62800       -3.64500       20.03100
C          7.43300       -2.75400       19.11600
C          6.25100       -5.23200       24.36400
S          5.14700       -5.53300       22.05800
