16

N          6.95800       -4.42000       20.87300
C          7.58600       -2.68100       19.27600
O          5.56800       -3.94300       19.17300
C          6.61100       -3.72200       19.77900
N          7.82400       -3.91800       21.82700
O          6.54100       -2.23000       22.61000
C          7.65500       -2.71300       22.39700
C          8.88900       -1.96700       22.71200
C         10.05000       -1.87800       21.88900
C         11.03900       -1.06300       22.48700
C         12.43400       -0.86300       21.99600
C         13.28600       -0.15400       23.03300
C         12.59100        1.03700       23.59000
C         11.33800        0.65500       24.34900
C         10.61100       -0.43800       23.61800
S          9.09700       -1.04700       24.18300
