19

N          6.63700       -5.00800       21.85000
C          7.86900       -3.54500       20.34900
O          5.83100       -4.61600       19.78100
Cl         0.62600       -1.25600       26.23700
C          6.69100       -4.43700       20.63100
N          5.83500       -5.37200       24.50300
O          6.32100       -4.99300       26.87800
C          5.71000       -6.08500       22.20200
O          4.68900       -6.72700       26.19800
C          4.90200       -5.70700       23.41600
C          6.66400       -4.21500       24.14900
C          7.49900       -4.60300       22.96200
C          3.94700       -4.24900       26.10900
C          4.22800       -2.93500       26.42000
C          3.20300       -2.00900       26.46300
C          1.91900       -2.41800       26.18300
C          1.63100       -3.72500       25.86500
C          2.65800       -4.64800       25.82100
S          5.25600       -5.42800       26.03200
