18

N          6.78500       -4.27300       21.95700
C          7.71400       -4.73000       19.88200
O          5.39700       -4.21300       20.15500
C          6.49200       -4.37400       20.66200
N          1.99400       -6.62700       23.94500
O          3.69500       -7.81700       24.82800
C          5.90400       -4.41200       23.04100
C          5.88800       -3.39600       23.99000
C          5.02200       -3.48200       25.05700
C          4.17400       -4.57000       25.18500
C          4.18600       -5.58900       24.24000
C          5.05000       -5.50500       23.14800
C          3.26100       -6.76400       24.36600
C          1.48500       -5.42800       23.26700
C          0.38700       -4.77800       24.08000
C         -0.16000       -7.25200       24.94600
C          0.99200       -7.69200       24.07200
S         -1.04800       -5.84500       24.26400
