18

C         13.14700       -1.00800       22.63700
N         12.33200       -1.26400       23.82500
O          7.90000       -2.34400       25.76500
C         11.60000       -0.06700       24.22700
N          9.97100       -1.46300       25.43100
O          7.33000       -0.44000       27.64900
C         10.88600       -0.32400       25.53200
C         10.59000       -2.65900       24.85400
C         11.36700       -2.33900       23.59500
C          8.70300       -1.41900       25.89600
C          8.27500       -0.15500       26.62800
C          6.90200        0.61600       28.41200
C          7.64700        1.78400       28.52500
C          7.17900        2.82100       29.31600
C          5.98000        2.73000       29.99400
C          5.48800        3.86100       30.84700
C          5.25100        1.56100       29.86800
C          5.69800        0.50400       29.09100
