20

C          7.60600        4.97600       22.54400
N          7.89100        2.59500       22.42100
O          6.20200        3.38400       23.63800
C          7.17700        3.59600       22.92700
N          9.00500       -0.84000       22.60100
O          5.62300        0.76900       16.90700
C          7.76900        1.22400       22.89700
O          9.77300        1.02100       21.60000
C          6.43200        0.58000       22.49500
C          6.18300        0.62000       21.00700
C          5.29500        1.52900       20.45000
C          5.08700        1.58700       19.08200
C          5.78100        0.72500       18.25100
C          6.67300       -0.18100       18.78400
C          6.86600       -0.23000       20.15100
C          8.94900        0.45600       22.31700
C          9.89300       -1.72300       21.87600
C         11.26300       -1.58200       22.37400
C         12.36800       -1.62900       22.83400
Br        14.08900       -1.90600       23.66700
