18

C          1.38700        3.84800       25.20000
C          0.38500        4.55700       25.85100
C         -0.92100        4.08800       25.88400
C         -1.23500        2.89400       25.25400
C         -0.24200        2.18400       24.59200
C          1.07200        2.65000       24.56400
C          2.13100        1.83500       23.82400
O          2.00300        0.65500       23.77100
N          3.27000        2.48900       23.18700
C          4.28100        1.73200       22.44900
C          3.78900        1.65500       21.00300
C          4.79200        1.17800       19.94900
C          5.80500        0.25700       20.22000
C          6.65400       -0.11300       19.17600
N          6.51800        0.38500       17.95400
C          5.56400        1.24900       17.69600
C          4.68000        1.67400       18.67300
F          2.66900        4.33700       25.19200
