16

C          8.93300        6.24100       22.63900
C         10.21200        5.94600       23.41300
O         10.24900        6.14200       24.57600
N         11.36800        5.41400       22.71000
C         12.60700        5.08700       23.38800
C         12.99000        3.65900       22.99600
C         12.00300        2.57400       23.46000
C         10.87600        2.75200       24.24500
N         10.28800        1.57500       24.41200
C         10.98500        0.59900       23.76300
C         10.76100       -0.79800       23.64500
C         11.64700       -1.57800       22.90700
C         12.75100       -0.98500       22.28600
C         12.97100        0.38700       22.40900
C         12.07000        1.19000       23.15900
F         13.62300       -1.74200       21.56200
