15

C	13.648	-1.255	23.648
N	12.239	-0.878	23.757
O	8.923	1.397	21.168
N	9.748	-0.082	22.651
N	6.58	0.354	17.832
C	10.573	0.883	23.374
N	4.588	1.541	18.516
C	8.992	0.244	21.588
C	7.366	-0.29	19.826
C	7.582	-0.319	18.481
C	5.696	0.825	18.756
C	3.892	1.89	19.605
C	4.252	1.575	20.913
C	5.403	0.852	21.141
C	6.158	0.452	20.033
