14

C	12.51	-1.903	22.267
O	5.772	-4.361	19.656
C	11.948	-0.81	23.14
N	6.512	-2.812	21.103
C	12.21	1.403	24.064
C	11.017	1.277	24.736
C	9.886	-2.194	23.731
C	8.696	-1.398	21.762
C	7.518	-0.572	21.323
C	6.254	-1.39	21.363
C	6.991	-3.649	22.211
C	7.552	-2.897	23.416
C	6.386	-3.318	19.864
C	7.079	-2.646	18.688
