20

N          6.79100       -2.15300       20.83300
C          8.26100       -3.01100       19.17900
O          5.90100       -3.37300       19.13800
C          6.86700       -2.86300       19.69500
N          8.70300       -2.07000       22.98700
C          7.74200       -1.04300       20.96300
C          9.00600       -1.42900       21.70500
C          9.93500       -2.40500       23.71100
C         11.01700       -1.37100       23.51100
C         12.04000       -1.58200       22.62200
C         13.04100       -0.62100       22.40300
C         12.99800        0.56500       23.05900
C         11.95200        0.84900       23.96800
C         11.88800        2.08400       24.65100
C         10.87300        2.35100       25.51200
C          9.88300        1.39100       25.76500
C          9.91300        0.19000       25.12300
C         10.94400       -0.12700       24.20000
C          7.88800       -3.25900       22.75200
C          6.58200       -2.89500       22.07800
