13

O          9.18400       -4.18400       27.85000
C          9.06800       -4.78700       26.58400
C         10.30900       -4.63600       25.86800
C         10.54600       -3.22900       25.30800
N          9.43700       -2.66000       24.58100
C          9.59300       -1.47200       24.27500
C         10.97100       -1.11400       23.70000
C         11.87200       -0.00100       24.22800
C         13.08600        0.05000       23.46400
S         13.05900       -1.08500       22.31200
C         11.61700       -1.75900       22.59700
C          8.22100       -2.80700       25.36000
C          7.96800       -4.24100       25.83200
