15

C          8.27400       -1.34600       20.77900
N          7.30000       -2.02200       19.91200
C          7.21600       -1.63200       18.49300
C          6.37300       -0.34100       18.40600
C          5.39300        0.05400       19.32100
C          4.88700        1.25200       18.89000
C          3.78700        2.06200       19.57800
O          5.52300        1.57000       17.77100
N          6.44500        0.61100       17.46200
C          6.40900       -3.04600       20.46900
O          5.62200       -3.58500       19.75700
N          6.50700       -3.40300       21.89300
C          5.64500       -4.42300       22.51000
C          6.42000       -5.60600       23.09800
C          5.55600       -5.80400       21.84700
