16

N          6.91000       -2.89600       21.04400
C          7.10200       -2.52900       18.60700
O          5.71300       -4.15800       19.63200
C          6.52000       -3.25200       19.80300
N          8.20400       -2.74700       23.55600
O          8.23800       -1.31000       25.31400
C          6.48200       -3.71200       22.18100
C          7.65000       -4.01400       23.08800
C          8.73700       -1.95700       22.44600
C          7.65000       -1.68300       21.42100
C          8.34400       -2.45200       24.87300
C          8.63500       -3.54000       25.74800
C          9.53200       -4.56000       25.50100
C          9.40200       -5.58900       26.45500
C          8.62500       -5.24500       27.50400
S          7.86200       -3.74700       27.27300
