16

O          9.09800        0.71700       20.86300
C          8.54400       -0.20000       21.37300
N          9.18100       -0.92600       22.44500
C         10.46600       -0.44700       22.85100
C         10.50000        0.38700       23.94900
C         11.70400        0.90000       24.36500
C         12.86500        0.58400       23.67300
C         12.82300       -0.25000       22.56900
C         11.61200       -0.76300       22.14700
N          7.23700       -0.62600       20.94100
C          6.55900        0.05800       19.87400
C          5.35300        0.68300       20.15200
C          4.72600        1.33900       19.10500
C          5.32100        1.30500       17.84900
N          6.47200        0.71000       17.64400
C          7.10300        0.08400       18.60200
